Replication/results/run_all_log.txt

==========================================================================================
step1_build_model.py
==========================================================================================
Removed 24 old protection objects
DG (4.05 MVA DG): xl=0.05, rstr=0.0014, xd=1.4, xq=1.372, xds=0.231, xqs=0.8, xdss=0.118, xqss=0.118, tds0=5.5, tdss0=0.05, tqs0=1.25, tqss0=0.19, h=0.75
  F632    A055C400E  at 632    (2022 Figs. 12, 15, 16 (not in [8]: relay R1 there))
  F633    A055C250E  at 632    ([8] Table V)
  F634    gL-800A    at 634    ([8] Table V (IEC 60269 gL 800 A))
  F645    A055C250E  at 645    ([8] Table V)
  F646    A055C300E  at 645    (2022 Figs. 11, 15, 16 ([8]: 200E))
  F-DL    A055C250E  at nDL    ([8] Table V)
  F671    A055C250E  at 671    ([8] Table V (F671-R there))
  F671-1  A055C300E  at 671    (2022 Fig. 9 (not in [8]: relay R5 there))
  F692    A055C200E  at 692    ([8] Table V)
  F692-R  A055C250E  at 692    (2022 Fig. 9 ([8]: 300E))
  F675    A055C200E  at 675    ([8] Table V)
  F671-2  A055C300E  at 671    (2022 Fig. 8 ([8]: 200E, F671 there))
  F684    A055C200E  at 684    (2022 Fig. 8 ([8]: 150E))
  F611    A055C125E  at 611    ([8] Table V)
  F652    A055C150E  at 684    ([8] Table V)
  R1: IAC77B801A at RG60, CT 900/5, units R1 Fast, R1 Delayed
  R2: CDG34 at 671, CT 500/5, units R2 Fast, R2 Delayed, R2 Rev Fast, R2 Rev Delayed
Load flow after build: OK

==========================================================================================
step2_studies.py
==========================================================================================
Load flow: R2 -2460 kW (DG out) / 755 kW (DG in)
Node sweeps: 252 faults
  Fig8: LG C at 611, Rf 0.0 -> R1 1814 A, R2 1718 A
  Fig9: LLG  at LC692-675 (50 %), Rf 1.0 -> R1 1445 A, R2 1310 A
  Fig10: LL AC at 684, Rf 0.2 -> R1 2403 A, R2 2388 A
  Fig11: LL BC at 646, Rf 1.0 -> R1 1899 A, R2 847 A
  Fig12: LL BC at 645, Rf 1.5 -> R1 1694 A, R2 783 A
  Fig13: LLL  at LOHL632-633 (10 %), Rf 0.0 -> R1 4645 A, R2 1777 A
  Fig15: LL BC at 646, Rf 0.0 -> R1 2785 A, R2 1114 A
Saved 273 fault cases to results/studies.json

==========================================================================================
step3_design_and_evaluate.py
==========================================================================================

TABLE II - rated (load flow), minimum (LG through 3 ohm, farthest node) and maximum (bolted, nearest node) branch current, DG out
  from     to      Inom A    paper | Ifmin kA    paper | Ifmax kA    paper
  RG60     632      587.7    587.1 |     1.07     1.24 |     4.73     5.41
  632      633       81.0     81.1 |     0.76     0.72 |     4.10     6.73
  632      645      143.1    143.3 |     0.73     0.93 |     3.42     4.25
  632      671      470.0    478.2 |     0.88     1.08 |     3.39     4.52
  XFM1-HV  side      81.0     81.1 |     0.08     0.73 |     1.81     6.48
  XFM1-LV  side     706.4    704.7 |     0.71     0.59 |    15.67    18.76
  645      646       66.1     64.9 |     0.73     0.84 |     3.11     3.64
  671      692      229.7    229.3 |     0.74     0.78 |     3.39     3.69
  671      684       71.1     70.9 |     0.66     0.69 |     2.66     3.47
  671      680        0.0      0.0 |     0.64     0.59 |     2.93     6.25
  692      675      205.9    205.9 |     0.74     0.71 |     3.15     7.83
  684      611       71.1     70.8 |     0.68     0.63 |     1.86     1.93
  684      652       63.0     63.1 |     0.66     0.66 |     1.87     2.67

STAGE A - SETTINGS WITHOUT DG (step 3)
  R1  GE IAC77B801A: Inom 587.7 A -> Ip = 1.25 Inom = 734.6 A -> CT 900/5, tap 4.0 A = 720 A; TDS 0.5 (fast) / 10 (delayed)
  R2  GE/Alstom CDG34 (forward): Inom 470.0 A -> Ip = 587.5 A -> CT 1000/5; fast plug 1.5 A = 300 A (curve from 600 A), delayed plug 3.0 A = 600 A (curve from 1200 A); TMS 0.10 / 1.00
      delayed TMS 1.00 = highest dial keeping R2 >= 10 cycles below R1 for all R2-zone faults

  published fuse sizes, no DG: 35 of 39 cells held
    lost  675  LG  A    series F692-R/F671-1: TCT 0.929 > 0.75 x MMT 0.622
    lost  675  LG  B    series F692-R/F671-1: TCT 0.868 > 0.75 x MMT 0.615
    lost  675  LG  C    series F692-R/F671-1: TCT 1.038 > 0.75 x MMT 0.714
    lost  675  LL  AB   series F692-R/F671-1: TCT 0.374 > 0.75 x MMT 0.252
    lost  675  LL  BC   series F692-R/F671-1: TCT 0.494 > 0.75 x MMT 0.346
    lost  675  LL  AC   series F692-R/F671-1: TCT 0.467 > 0.75 x MMT 0.325
    lost  675  LLG AB   series F692-R/F671-1: TCT 0.335 > 0.75 x MMT 0.223
    lost  675  LLG BC   series F692-R/F671-1: TCT 0.403 > 0.75 x MMT 0.280
    lost  675  LLG AC   series F692-R/F671-1: TCT 0.419 > 0.75 x MMT 0.290
    lost  675  LLL ABC  series F692-R/F671-1: TCT 0.293 > 0.75 x MMT 0.198
  step 9/10: F692-R A055C250E -> A055C200E (lost cases 10 -> 0)
  after steps 8-10, no DG: 39 of 39 cells held

TABLE III - fuse coefficient b_i, eq. (9), a_i = -1.8, at the maximum fault current below the fuse (DG out)
  fuse       If A  i/z   t_F s   t_D s   t_fuse |    b_i b(i rev.)  paper | b_i of the installed fuse
  F632       3418  2/2   0.133   2.670    1.824 |   6.62      6.35   6.38 | 6.07  (A055C400E)
  F633       4102  1/1   0.100   2.008    1.054 |   6.53      6.53   6.83 | 5.51  (A055C250E)
  F634      15671  1/2   0.439   8.772    3.217 |   8.06      8.33   8.32 | 5.88  (gL-800A)
  F645       3418  1/2   0.133   2.670    0.979 |   6.35      6.62   6.65 | 5.56  (A055C250E)
  F646       3112  1/2   0.156   3.115    1.142 |   6.35      6.62   6.67 | 5.72  (A055C300E)
  F-DL       3946  1/1   0.106   2.130    1.118 |   6.52      6.52   6.54 | 5.52  (A055C250E)
  F671       3390  1/1   0.054   1.601    0.827 |   6.27      6.27   6.08 | 5.56  (A055C250E)
  F671-1     3390  3/3   0.054   1.601    1.214 |   6.44      6.00   5.85 | 5.69  (A055C300E)
  F692       3390  1/2   0.054   1.601    0.569 |   6.11      6.39   6.13 | 5.33  (A055C200E)
  F692-R     3151  2/3   0.057   1.829    0.943 |   6.27      6.27   6.14 | 5.35  (A055C200E)
  F675       3151  1/3   0.057   1.829    0.500 |   6.00      6.44   6.19 | 5.35  (A055C200E)
  F671-2     2655  3/3   0.069   2.572    1.946 |   6.45      6.01   5.87 | 5.80  (A055C300E)
  F684       1857  2/3   0.113   5.778    2.946 |   6.35      6.35   6.15 | 5.55  (A055C200E)
  F611       1857  1/3   0.113   5.778    1.530 |   6.07      6.52   6.19 | 4.96  (A055C125E)
  F652       1874  1/2   0.112   5.660    1.961 |   6.18      6.47   6.17 | 5.21  (A055C150E)

STAGE B - DG 4.05 MVA at 692, conventional (non-directional) R2 -> Fig. 14: 24 of 39 cells held
    lost  633  LG  A    R2 does not pick up (544 A); F633 melts (0.156 s) before R1 fast (0.173 s)
    lost  633  LG  B    F633 melts (0.155 s) before R1 fast (0.178 s); F633 melts (0.155 s) before R2 fast (0.974 s)
    lost  633  LG  C    R2 does not pick up (564 A); F633 melts (0.164 s) before R1 fast (0.176 s)
    lost  633  LL  AB   F633 melts (0.078 s) before R1 fast (0.130 s); F633 melts (0.078 s) before R2 fast (0.263 s)
    lost  633  LL  BC   F633 melts (0.089 s) before R1 fast (0.146 s); F633 melts (0.089 s) before R2 fast (0.217 s)
    lost  633  LL  AC   F633 melts (0.082 s) before R1 fast (0.136 s); F633 melts (0.082 s) before R2 fast (0.237 s)
    lost  633  LLG AB   F633 melts (0.069 s) before R1 fast (0.119 s); F633 melts (0.069 s) before R2 fast (0.222 s)
    lost  633  LLG BC   F633 melts (0.076 s) before R1 fast (0.131 s); F633 melts (0.076 s) before R2 fast (0.204 s)
    lost  633  LLG AC   F633 melts (0.074 s) before R1 fast (0.124 s); F633 melts (0.074 s) before R2 fast (0.211 s)
    lost  633  LLL ABC  F633 melts (0.055 s) before R1 fast (0.106 s); F633 melts (0.055 s) before R2 fast (0.160 s)
    lost  645  LG  C    R2 does not pick up (504 A)
    lost  645  LG  B    R2 does not pick up (595 A)
    lost  646  LG  C    R2 does not pick up (469 A)
    lost  646  LG  B    R2 does not pick up (544 A)
    lost  646  LL  BC   F646 melts (0.178 s) before R1 fast (0.189 s); F646 melts (0.178 s) before R2 fast (0.278 s)
    lost  646  LLG BC   F646 melts (0.158 s) before R1 fast (0.166 s); F646 melts (0.158 s) before R2 fast (0.267 s)
    lost  675  LL  AB   F692-R melts (0.054 s) before R2 fast (0.065 s)
    lost  675  LL  BC   F692-R melts (0.063 s) before R2 fast (0.075 s)
    lost  675  LL  AC   F692-R melts (0.061 s) before R2 fast (0.071 s)
    lost  675  LLG AB   F692-R melts (0.048 s) before R2 fast (0.062 s)
    lost  675  LLG BC   F692-R melts (0.054 s) before R2 fast (0.070 s)
    lost  675  LLG AC   F692-R melts (0.055 s) before R2 fast (0.069 s)
    lost  675  LLL ABC  F692-R melts (0.038 s) before R2 fast (0.059 s)
    lost  DL   LG  A    F-DL melts (0.191 s) before R1 fast (0.216 s); F-DL melts (0.191 s) before R2 fast (1.079 s)
    lost  DL   LG  B    F-DL melts (0.189 s) before R1 fast (0.221 s); F-DL melts (0.189 s) before R2 fast (0.796 s)
    lost  DL   LG  C    F-DL melts (0.200 s) before R1 fast (0.221 s); F-DL melts (0.200 s) before R2 fast (0.986 s)
    lost  DL   LL  AB   F-DL melts (0.066 s) before R1 fast (0.128 s); F-DL melts (0.066 s) before R2 fast (0.159 s)
    lost  DL   LL  BC   F-DL melts (0.075 s) before R1 fast (0.151 s); F-DL melts (0.075 s) before R2 fast (0.143 s)
    lost  DL   LL  AC   F-DL melts (0.072 s) before R1 fast (0.141 s); F-DL melts (0.072 s) before R2 fast (0.149 s)
    lost  DL   LLG AB   F-DL melts (0.058 s) before R1 fast (0.119 s); F-DL melts (0.058 s) before R2 fast (0.138 s)
    lost  DL   LLG BC   F-DL melts (0.067 s) before R1 fast (0.136 s); F-DL melts (0.067 s) before R2 fast (0.135 s)
    lost  DL   LLG AC   F-DL melts (0.065 s) before R1 fast (0.132 s); F-DL melts (0.065 s) before R2 fast (0.134 s)
    lost  DL   LLL ABC  F-DL melts (0.046 s) before R1 fast (0.106 s); F-DL melts (0.046 s) before R2 fast (0.103 s)

FIG. 7 - CTI = fuse t_MMT - recloser fast time, 3-phase fault, conventional settings and fuse sizes of the no-DG design
  CTI % = 100 x CTI / t_MMT.   633: F633 (A055C250E) against R1;   671: load fuse F671 (A055C250E) against R2
  DG penetration %            0      10      25      37      50      75     100
  633 internal  I fuse A    4102    4256    4478    4648    4824    5139    5426
  633 internal  t_MMT s    0.102   0.094   0.083   0.077   0.071   0.062   0.055
  633 internal  t_fast s   0.098   0.099   0.100   0.101   0.102   0.104   0.106
  633 internal  CTI s     +0.004  -0.005  -0.017  -0.024  -0.031  -0.042  -0.051
  633 internal  CTI %         +4      -6     -20     -31     -44     -68     -92
  paper (ring)  CTI %        +30     +23     +14      +6      -4      -9     -16
  671 external  I fuse A    3390    3600    3919    4178    4461    5010    5564
  671 external  t_MMT s    0.161   0.140   0.114   0.098   0.084   0.065   0.052
  671 external  t_fast s   0.054   0.054   0.054   0.054   0.054   0.054   0.054
  671 external  CTI s     +0.108  +0.086  +0.060  +0.044  +0.030  +0.011  -0.002
  671 external  CTI %        +67     +62     +53     +45     +36     +18      -3
  paper (ring)  CTI %        +36     +22     +12      +6      +0      -8     -14

STAGE C - R2 AS DUAL-SETTING DIRECTIONAL RECLOSER
  reverse load current with DG 252.2 A (755 kW towards 632) -> Ip,rv = 1.25 x 252.2 = 315.2 A (eq. 12)
  DSDR: CDG34 extremely-inverse curve in both directions, TMS 0.1-1.0; reverse setting group on CT 500/5
  reverse fast plug 1.5 A = 150 A (curve from 300 A), delayed plug 3.0 A = 300 A (curve from 600 A)
  step 9/10: F-DL A055C250E -> A055C400E (lost cases 30 -> 20)
  step 9/10: F633 A055C250E -> A055C400E (lost cases 20 -> 10)
  step 9/10: F692-R A055C200E -> A055C250E (lost cases 10 -> 9)
  step 9/10: F671-1 A055C300E -> A055C400E (lost cases 10 -> 9)
  step 9/10: F646 A055C300E -> A055C400E (lost cases 9 -> 8)
  step 9/10: F632 A055C400E -> A055C500E (lost cases 9 -> 8)
  final: reverse TMS 0.100 (fast) / 1.000 (delayed); forward TMS 0.100 / 1.000
  Fig. 17: 38 of 39 cells held with DG;  37 of 39 without DG
    lost  692  LG  A    R2 delayed (3.958 s) before F671-1 clears (7.580 s)
    lost  692  LG  B    R2 delayed (4.258 s) before F671-1 clears (9.150 s)
    lost  692  LG  C    R2 delayed (4.397 s) before F671-1 clears (9.997 s)
  check: final fuse sizes but conventional R2 -> 31 of 39 cells held
  Fig. 14 agreement with the paper: 29 of 39 cells;  Fig. 17: 38 of 39

SYMPATHETIC CHECK - F671-1 carries the DG current for faults outside its zone (DSDR, DG in)
  fault 632  worst LLL ABC: F671-1  1833 A melts 5.144 s; R2 reverse fast 0.051 s -> ok
  fault 633  worst LLL ABC: F671-1  1549 A melts 11.948 s; R2 reverse fast 0.060 s -> ok
  fault 645  worst LLG BC : F671-1  1368 A melts 24.099 s; R2 reverse fast 0.073 s -> ok
  fault 646  worst LLG BC : F671-1  1252 A melts 42.277 s; R2 reverse fast 0.084 s -> ok
  fault DL   worst LLL ABC: F671-1  1982 A melts 3.628 s; R2 reverse fast 0.048 s -> ok
  fault 671  worst LLL ABC: F671-1  2175 A melts 2.467 s; R2 reverse fast 0.054 s -> ok
  fault 680  worst LLL ABC: F671-1  1764 A melts 6.151 s; R2 reverse fast 0.066 s -> ok
  fault 684  worst LLG AC : F671-1  1714 A melts 7.051 s; R2 reverse fast 0.069 s -> ok
  fault 611  worst LG  C  : F671-1   688 A melts no trip s; R2 reverse fast 0.128 s -> ok
  fault 652  worst LG  A  : F671-1   659 A melts no trip s; R2 reverse fast 0.123 s -> ok

TABLE IV - operating times with the DSDR, DG in; bolted LLL (LL at 2-phase nodes, LG at 1-phase nodes)
  node flt | R1 fast / delayed | R2 unit fast / delayed | fuse    MMT / TCT       | paper: R1 | R2 | fuse
  632  LLL |   0.081 / 1.627   | rev   0.051 / 1.416   | ---        --- / ---    | 0.070/1.398 | 0.045/0.514 | ---
  633  LLL |   0.106 / 2.111   | rev   0.060 / 2.001   | F633     0.149 / 0.235  | 0.094/1.880 | 0.052/0.706 | 0.163
  645  LL  |   0.155 / 3.095   | rev   0.075 / 3.002   | F632     0.613 / 0.970  | 0.105/2.095 | 0.087/1.659 | 0.276
  646  LL  |   0.189 / 3.770   | rev   0.086 / 3.771   | F646     0.415 / 0.684  | 0.128/2.555 | 0.103/2.046 | 0.181
  DL   LLL |   0.106 / 2.123   | rev   0.048 / 1.213   | F-DL     0.121 / 0.193  | 0.087/1.733 | 0.076/1.402 | 0.248
  671  LLL |   0.134 / 2.677   | fwd   0.054 / 1.600   | ---        --- / ---    | 0.105/2.091 | 0.068/1.113 | ---
  692  LLL |   0.134 / 2.677   | fwd   0.054 / 1.600   | F671-1   0.525 / 0.891  | 0.115/2.307 | 0.072/1.258 | 0.175
  675  LLL |   0.158 / 3.152   | fwd   0.059 / 1.941   | F692-R   0.065 / 0.106  | 0.121/2.414 | 0.074/1.332 | 0.185
  684  LL  |   0.222 / 4.437   | fwd   0.072 / 2.813   | F671-2   0.148 / 0.230  | 0.125/2.507 | 0.075/1.394 | 0.205
  680  LLL |   0.188 / 3.761   | fwd   0.066 / 2.381   | ---        --- / ---    | 0.137/2.747 | 0.079/1.555 | ---
  611  LG  |   0.435 / 8.709   | fwd   0.128 / 6.986   | F684     0.271 / 0.414  | 0.326/6.523 | 0.146/4.385 | 0.417
  652  LG  |   0.446 / 8.919   | fwd   0.123 / 6.570   | F652     0.138 / 0.193  | 0.676/13.525 | 0.143/9.370 | 0.233

==========================================================================================
make_tables.py
==========================================================================================
TABLE I - short-circuit parameters of the synchronous DG (paper against the PowerFactory model)
  Parameter                                      | Symbol | Paper           | Model       | Unit | Match
  -----------------------------------------------+--------+-----------------+-------------+------+------
  Leakage reactance                              | Xl     | 0.05            | 0.05        | pu   | yes
  Stator resistance                              | Ra     | 0.0014          | 0.0014      | pu   | yes
  d-axis synchronous reactance                   | Xd     | 1.4             | 1.4         | pu   | yes
  d-axis transient reactance                     | X'd    | 0.231           | 0.231       | pu   | yes
  d-axis subtransient reactance                  | X''d   | 0.118           | 0.118       | pu   | yes
  d-axis transient open-circuit time constant    | T'd0   | 5.5             | 5.5         | s    | yes
  d-axis subtransient open-circuit time constant | T''d0  | 0.05            | 0.05        | s    | yes
  q-axis synchronous reactance                   | Xq     | 1.372           | 1.372       | pu   | yes
  q-axis transient reactance                     | X'q    | 0.8             | 0.8         | pu   | yes
  q-axis subtransient reactance                  | X''q   | 0.118           | 0.118       | pu   | yes
  q-axis transient open-circuit time constant    | T'q0   | 1.25            | 1.25        | s    | yes
  q-axis subtransient open-circuit time constant | T''q0  | 0.19            | 0.19        | s    | yes
  Mechanical starting time                       | M = 2H | 1.5             | 1.5         | s    | yes
  DG rating                                      | Sn     | 4.05            | 4.05        | MVA  | yes
  DG voltage                                     | Un     | 0.69            | 0.69        | kV   | yes
  Step-up transformer, HV side                   | U_HV   | 4.16            | 4.16        | kV   | yes
  Step-up transformer leakage reactance          | x_T    | 0.15            | 0.15        | pu   | yes
  DG connected at node                           |        | 692             | DG          |      | yes
  Rotor model in PowerFactory                    |        | X'q, T'q0 given | round rotor |      | yes
  The DG terminal 'DG' (0.69 kV) is connected to node 692 through the 4.16/0.69 kV transformer.

TABLE II - rated, minimum and maximum fault current of the protected branches (DG out)
  From    | To   | Inom (A) | paper Inom (A) | dev. | If,min (kA) | paper If,min (kA) | dev.  | If,max (kA) | paper If,max (kA) | dev.
  --------+------+----------+----------------+------+-------------+-------------------+-------+-------------+-------------------+------
  RG60    | 632  | 587.7    | 587.1          | +0 % | 1.07        | 1.24              | -14 % | 4.73        | 5.41              | -13 %
  632     | 633  | 81.0     | 81.1           | -0 % | 0.76        | 0.72              | +6 %  | 4.1         | 6.73              | -39 %
  632     | 645  | 143.1    | 143.3          | -0 % | 0.73        | 0.93              | -22 % | 3.42        | 4.25              | -20 %
  632     | 671  | 470.0    | 478.2          | -2 % | 0.88        | 1.08              | -19 % | 3.39        | 4.52              | -25 %
  XFM1-HV | side | 81.0     | 81.1           | -0 % | 0.08        | 0.73              | -89 % | 1.81        | 6.48              | -72 %
  XFM1-LV | side | 706.4    | 704.7          | +0 % | 0.71        | 0.59              | +20 % | 15.67       | 18.76             | -16 %
  645     | 646  | 66.1     | 64.9           | +2 % | 0.73        | 0.84              | -13 % | 3.11        | 3.64              | -15 %
  671     | 692  | 229.7    | 229.3          | +0 % | 0.74        | 0.78              | -5 %  | 3.39        | 3.69              | -8 %
  671     | 684  | 71.1     | 70.9           | +0 % | 0.66        | 0.69              | -4 %  | 2.66        | 3.47              | -23 %
  671     | 680  | 0.0      | 0.0            | ---  | 0.64        | 0.59              | +8 %  | 2.93        | 6.25              | -53 %
  692     | 675  | 205.9    | 205.9          | +0 % | 0.74        | 0.71              | +4 %  | 3.15        | 7.83              | -60 %
  684     | 611  | 71.1     | 70.8           | +0 % | 0.68        | 0.63              | +8 %  | 1.86        | 1.93              | -4 %
  684     | 652  | 63.0     | 63.1           | -0 % | 0.66        | 0.66              | +0 %  | 1.87        | 2.67              | -30 %
  Inom: unbalanced load flow, largest phase.  If,min: LG through 3 ohm at the farthest node.  If,max: bolted fault
  at the nearest node.  The model's fault levels are those of the IEEE benchmark; the paper's are higher.

TABLE III - fuse coefficient b_i of eq. (9), a_i = -1.8, at the maximum fault current below the fuse (DG out)
  Fuse   | If (A) | i/z | R fast (s) | R delayed (s) | t_fuse eq.(9) (s) | b_i  | b_i (i from source) | paper b_i | Fuse (design without DG) | t_MMT at If (s) | t_TCT at If (s) | b_i of installed fuse
  -------+--------+-----+------------+---------------+-------------------+------+---------------------+-----------+--------------------------+-----------------+-----------------+----------------------
  F632   | 3418   | 2/2 | 0.133      | 2.67          | 1.824             | 6.62 | 6.35                | 6.38      | A055C400E                | 0.512           | 0.867           | 6.07
  F633   | 4102   | 1/1 | 0.1        | 2.008         | 1.054             | 6.53 | 6.53                | 6.83      | A055C250E                | 0.102           | 0.161           | 5.51
  F634   | 15671  | 1/2 | 0.439      | 8.772         | 3.217             | 8.06 | 8.33                | 8.32      | gL-800A                  | 0.021           | 0.199           | 5.88
  F645   | 3418   | 1/2 | 0.133      | 2.67          | 0.979             | 6.35 | 6.62                | 6.65      | A055C250E                | 0.158           | 0.241           | 5.56
  F646   | 3112   | 1/2 | 0.156      | 3.115         | 1.142             | 6.35 | 6.62                | 6.67      | A055C300E                | 0.273           | 0.424           | 5.72
  F-DL   | 3946   | 1/1 | 0.106      | 2.13          | 1.118             | 6.52 | 6.52                | 6.54      | A055C250E                | 0.112           | 0.175           | 5.52
  F671   | 3390   | 1/1 | 0.054      | 1.601         | 0.827             | 6.27 | 6.27                | 6.08      | A055C250E                | 0.161           | 0.246           | 5.56
  F671-1 | 3390   | 3/3 | 0.054      | 1.601         | 1.214             | 6.44 | 6.0                 | 5.85      | A055C300E                | 0.218           | 0.337           | 5.69
  F692   | 3390   | 1/2 | 0.054      | 1.601         | 0.569             | 6.11 | 6.39                | 6.13      | A055C200E                | 0.094           | 0.155           | 5.33
  F692-R | 3151   | 2/3 | 0.057      | 1.829         | 0.943             | 6.27 | 6.27                | 6.14      | A055C200E                | 0.112           | 0.181           | 5.35
  F675   | 3151   | 1/3 | 0.057      | 1.829         | 0.5               | 6.0  | 6.44                | 6.19      | A055C200E                | 0.112           | 0.181           | 5.35
  F671-2 | 2655   | 3/3 | 0.069      | 2.572         | 1.946             | 6.45 | 6.01                | 5.87      | A055C300E                | 0.428           | 0.687           | 5.8
  F684   | 1857   | 2/3 | 0.113      | 5.778         | 2.946             | 6.35 | 6.35                | 6.15      | A055C200E                | 0.465           | 0.711           | 5.55
  F611   | 1857   | 1/3 | 0.113      | 5.778         | 1.53              | 6.07 | 6.52                | 6.19      | A055C125E                | 0.120           | 0.188           | 4.96
  F652   | 1874   | 1/2 | 0.112      | 5.66          | 1.961             | 6.18 | 6.47                | 6.17      | A055C150E                | 0.207           | 0.293           | 5.21
  t_fuse eq.(9) = t_F + i/(z+1) (t_D - t_F) is the melting time the method asks for; t_MMT is what the installed
  fuse gives at the same current (read from its minimum-melting curve).  Sizes: design without DG; Table IV
  uses the sizes after step 9 (DG in service, DSDR).

TABLE IV - operating times with the DSDR, DG in service (bolted LLL; LL at 2-phase, LG at 1-phase nodes)
  Node | Fault | I R1 (A) | R1 fast (s) | R1 delayed (s) | I R2 (A) | R2 dir. | R2 fast (s) | R2 delayed (s) | Fuse   | Size | I fuse (A) | Fuse t_MMT (s) | Fuse t_TCT (s) | Last fast trip (s) | Margin t_MMT - fast (s) | Status
  -----+-------+----------+-------------+----------------+----------+---------+-------------+----------------+--------+------+------------+----------------+----------------+--------------------+-------------------------+-------
  632  | LLL   | 4734     | 0.081       | 1.627          | 1813     | rev     | 0.051       | 1.416          | ---    | ---  | ---        | ---            | ---            | 0.081              | ---                     | held
  633  | LLL   | 3970     | 0.106       | 2.111          | 1500     | rev     | 0.060       | 2.001          | F633   | 400E | 5426       | 0.149          | 0.235          | 0.106              | +0.043                  | held
  645  | LL    | 3124     | 0.155       | 3.095          | 1232     | rev     | 0.075       | 3.002          | F632   | 500E | 4191       | 0.613          | 0.970          | 0.155              | +0.458                  | held
  646  | LL    | 2785     | 0.189       | 3.770          | 1114     | rev     | 0.086       | 3.771          | F646   | 400E | 3672       | 0.415          | 0.684          | 0.189              | +0.226                  | held
  DL   | LLL   | 3954     | 0.106       | 2.123          | 1972     | rev     | 0.048       | 1.213          | F-DL   | 400E | 5902       | 0.121          | 0.193          | 0.106              | +0.015                  | held
  671  | LLL   | 3412     | 0.134       | 2.677          | 3391     | fwd     | 0.054       | 1.600          | ---    | ---  | ---        | ---            | ---            | 0.054              | ---                     | held
  692  | LLL   | 3412     | 0.134       | 2.677          | 3391     | fwd     | 0.054       | 1.600          | F671-1 | 400E | 3391       | 0.525          | 0.891          | 0.054              | +0.471                  | held
  675  | LLL   | 3090     | 0.158       | 3.152          | 3050     | fwd     | 0.059       | 1.941          | F692-R | 250E | 5022       | 0.065          | 0.106          | 0.059              | +0.006                  | held
  684  | LL    | 2543     | 0.222       | 4.437          | 2543     | fwd     | 0.072       | 2.813          | F671-2 | 300E | 3963       | 0.148          | 0.230          | 0.072              | +0.076                  | held
  680  | LLL   | 2789     | 0.188       | 3.761          | 2757     | fwd     | 0.066       | 2.381          | ---    | ---  | ---        | ---            | ---            | 0.066              | ---                     | held
  611  | LG    | 1814     | 0.435       | 8.709          | 1718     | fwd     | 0.128       | 6.986          | F684   | 200E | 2236       | 0.271          | 0.414          | 0.128              | +0.143                  | held
  652  | LG    | 1795     | 0.446       | 8.919          | 1761     | fwd     | 0.123       | 6.570          | F652   | 150E | 2239       | 0.138          | 0.193          | 0.123              | +0.015                  | held
  Fuse: the fuse between the reclosers and the fault that is nearest to the fault; it carries the grid and the DG
  share, so its current differs from the reclosers'.  t_MMT / t_TCT: minimum-melting / total-clearing time of that
  fuse at its own current.  Last fast trip: R2 for faults below R2; the later of R1 and R2 (reverse) above R2.
  Nodes 632, 671 and 680 are on the main feeder: no fuse between the reclosers and the fault.

  Table IV against the paper (s)
  Node | R1 fast paper / model | dev.  | R1 delayed paper / model | dev.  | R2 fast paper / model | dev.  | R2 delayed paper / model | dev.   | Fuse t_MMT paper / model | dev.
  -----+-----------------------+-------+--------------------------+-------+-----------------------+-------+--------------------------+--------+--------------------------+-------
  632  | 0.07 / 0.081          | +16 % | 1.398 / 1.627            | +16 % | 0.045 / 0.051         | +13 % | 0.514 / 1.416            | +175 % | --- / ---                | ---
  633  | 0.094 / 0.106         | +13 % | 1.88 / 2.111             | +12 % | 0.052 / 0.060         | +15 % | 0.706 / 2.001            | +183 % | 0.163 / 0.149            | -9 %
  645  | 0.105 / 0.155         | +48 % | 2.095 / 3.095            | +48 % | 0.087 / 0.075         | -14 % | 1.659 / 3.002            | +81 %  | 0.276 / 0.613            | +122 %
  646  | 0.128 / 0.189         | +48 % | 2.555 / 3.770            | +48 % | 0.103 / 0.086         | -17 % | 2.046 / 3.771            | +84 %  | 0.181 / 0.415            | +129 %
  DL   | 0.087 / 0.106         | +22 % | 1.733 / 2.123            | +23 % | 0.076 / 0.048         | -37 % | 1.402 / 1.213            | -13 %  | 0.248 / 0.121            | -51 %
  671  | 0.105 / 0.134         | +28 % | 2.091 / 2.677            | +28 % | 0.068 / 0.054         | -21 % | 1.113 / 1.600            | +44 %  | --- / ---                | ---
  692  | 0.115 / 0.134         | +17 % | 2.307 / 2.677            | +16 % | 0.072 / 0.054         | -25 % | 1.258 / 1.600            | +27 %  | 0.175 / 0.525            | +200 %
  675  | 0.121 / 0.158         | +31 % | 2.414 / 3.152            | +31 % | 0.074 / 0.059         | -20 % | 1.332 / 1.941            | +46 %  | 0.185 / 0.065            | -65 %
  684  | 0.125 / 0.222         | +78 % | 2.507 / 4.437            | +77 % | 0.075 / 0.072         | -4 %  | 1.394 / 2.813            | +102 % | 0.205 / 0.148            | -28 %
  680  | 0.137 / 0.188         | +37 % | 2.747 / 3.761            | +37 % | 0.079 / 0.066         | -16 % | 1.555 / 2.381            | +53 %  | --- / ---                | ---
  611  | 0.326 / 0.435         | +33 % | 6.523 / 8.709            | +34 % | 0.146 / 0.128         | -12 % | 4.385 / 6.986            | +59 %  | 0.417 / 0.271            | -35 %
  652  | 0.676 / 0.446         | -34 % | 13.525 / 8.919           | -34 % | 0.143 / 0.123         | -14 % | 9.37 / 6.570             | -30 %  | 0.233 / 0.138            | -41 %
  The paper prints no fuse sizes and no R2 settings, so its t_MMT cannot be reproduced exactly; the fuses here are
  the ones chosen by the method's step 9 for the model's fault levels.

Saved: C:\Users\Rabin\Desktop\Digsilent_project - TWIST AND TURN\Replication\results\database  (Table_I ... Table_IV csv, Tables_I_to_IV.txt)

==========================================================================================
make_figures_1_to_6.py
==========================================================================================
Figures 1-6:
  Fig01_conventional_TCC.png
  Fig02_typical_network.png
  Fig03_DSDR_TCC.png
  Fig04_series_fuses_SLG.png
  Fig05_method_flowchart.png
  Fig06_IEEE13_with_devices.png
Fig. 1: R1 with F646 A055C300E - coordination range 1387 A (A) ... 5797 A (B)
Fig. 3: R2 reverse - R2 1114 A fast 0.086 s; fuse 3672 A melts 0.415 s
Fig. 3: R2 forward - R2 1718 A fast 0.128 s; fuse 2236 A melts 0.271 s
Fig. 4: LG at 652, 1874 A: F652 melts 0.207 s, F652 clears 0.293 s, F671-2 melts 1.372 s, F671-2 clears 2.828 s; 75 % rule kept

==========================================================================================
step4_apply_settings.py conventional
==========================================================================================
Applying the conventional settings
  R1 tap 4.0 A (CT 900/5) TDS 0.50 / 10.00
  R2 forward plug 1.5 / 3.0 A (CT 1000/5) TMS 0.100 / 1.000
  fuses: F632 A055C400E, F633 A055C250E, F634 gL-800A, F645 A055C250E, F646 A055C300E, F-DL A055C250E, F671 A055C250E, F671-1 A055C300E, F692 A055C200E, F692-R A055C200E, F675 A055C200E, F671-2 A055C300E, F684 A055C200E, F611 A055C125E, F652 A055C150E
Checked 780 operating times: PowerFactory vs Python median deviation 0.00 %, max 0.79 %

==========================================================================================
step5_fig10_emt.py
==========================================================================================
Fig. 10 DG out: R2 2607 A -> fast shot 0.120 s incl. breaker; fuse heat at the end of the fast shots 45 % of melting; melts at 1.248 s, F671-2 clears at 1.613 s
   t = 0.220 s  R2 fast trip 1
   t = 0.520 s  R2 reclose 1
   t = 0.640 s  R2 fast trip 2
   t = 0.940 s  R2 reclose 2
   t = 1.613 s  F671-2 clears
Fig. 10 DG in: R2 2436 A -> fast shot 0.126 s incl. breaker; fuse heat at the end of the fast shots 105 % of melting; melts at 0.637 s, F671-2 clears at 1.263 s
   t = 0.226 s  R2 fast trip 1
   t = 0.526 s  R2 reclose 1
   t = 0.653 s  R2 fast trip 2
   t = 0.953 s  R2 reclose 2
   t = 1.263 s  F671-2 clears
Saved figures/Fig10_EMT_LL_684.png, results/Fig10_EMT_DG_*.csv and Fig10_summary.json

==========================================================================================
step4_apply_settings.py dsdr
==========================================================================================
Applying the dsdr settings
  R1 tap 4.0 A (CT 900/5) TDS 0.50 / 10.00
  R2 forward plug 1.5 / 3.0 A (CT 1000/5) TMS 0.100 / 1.000
  R2 reverse plug 1.5 / 3.0 A (CT 500/5) TMS 0.100 / 1.000
  fuses: F632 A055C500E, F633 A055C400E, F634 gL-800A, F645 A055C250E, F646 A055C400E, F-DL A055C400E, F671 A055C250E, F671-1 A055C400E, F692 A055C200E, F692-R A055C250E, F675 A055C200E, F671-2 A055C300E, F684 A055C200E, F611 A055C125E, F652 A055C150E
Checked 1116 operating times: PowerFactory vs Python median deviation 0.02 %, max 1.22 %

==========================================================================================
loadflow_all_buses.py
==========================================================================================

======================================================================================================================
LOAD FLOW ON ALL BUSES AND BRANCHES
======================================================================================================================
Project: IEEE13 Yousaf2022 Replication   Study case: Study with Substation Transformer
AC load flow, unbalanced 3-phase (ABC).  Grid at bus SubstationHV.  22 buses, 23 branch elements.

======================================================================================================================
LOAD FLOW, DG DISCONNECTED  -  BRANCH FLOWS  (From node -> To node, away from the grid)
======================================================================================================================
Values at the From node.  + : power / current flows From -> To;  - : it flows To -> From.
  From node    | To node | Branch                              | I a (A) | I b (A) | I c (A) | P (kW)  | Q (kvar) | Loss (kW) | Active power flows 
  -------------+---------+-------------------------------------+---------+---------+---------+---------+----------+-----------+--------------------
  SubstationHV | 650     | TrSubstation (transformer)          | +18.6   | +20.7   | +23.3   | +3618.2 | +2003.3  | 35.15     | SubstationHV -> 650
  650          | RG60    | Vreg A+B+C (regulator)              | +592.7  | +431.9  | +628.1  | +3583.0 | +1722.0  | 0.00      | 650 -> RG60        
  RG60         | 632     | LOHL650-632 (line)                  | +557.9  | +411.3  | +587.7  | +3583.0 | +1722.0  | 59.50     | RG60 -> 632        
  632          | 633     | LOHL632-633 (line)                  | +81.0   | +60.6   | +62.8   | +406.3  | +301.1   | 0.91      | 632 -> 633         
  632          | 645     | LOHL632-645 (line)                  | -       | +143.1  | +66.1   | +420.9  | +269.8   | 3.38      | 632 -> 645         
  632          | nDL1    | LOHL632-671start (line)             | +478.1  | +212.2  | +475.7  | +2696.3 | +958.1   | 6.47      | 632 -> nDL1        
  633          | 634     | XFM-1 (transformer)                 | +81.0   | +60.6   | +62.8   | +405.4  | +299.9   | 5.40      | 633 -> 634         
  645          | 646     | LOHL645-646 (line)                  | -       | +66.1   | +66.1   | +247.6  | +142.2   | 0.56      | 645 -> 646         
  nDL1         | nDL2    | s2LOHL632-671 (line)                | +476.5  | +206.5  | +464.8  | +2649.8 | +914.5   | 6.28      | nDL1 -> nDL2       
  nDL2         | nDL     | s3LOHL632-671 (line)                | +474.9  | +200.8  | +453.8  | +2603.5 | +871.4   | 6.10      | nDL2 -> nDL        
  nDL          | nDL4    | s4LOHL632-671 (line)                | +473.3  | +195.2  | +442.9  | +2557.4 | +829.0   | 5.93      | nDL -> nDL4        
  nDL          | DL      | LDL (line)                          | +1.6    | +6.0    | +11.3   | +40.0   | +23.2    | 0.00      | nDL -> DL          
  nDL4         | nDL5    | s5LOHL632-671 (line)                | +471.6  | +189.6  | +431.8  | +2511.5 | +787.0   | 5.76      | nDL4 -> nDL5       
  nDL5         | 671     | LOHL632-671end (line)               | +470.0  | +184.0  | +420.8  | +2465.7 | +745.6   | 5.61      | nDL5 -> 671        
  671          | 684     | LOHL671-684 (line)                  | +63.0   | -       | +71.1   | +290.0  | +67.1    | 0.58      | 671 -> 684         
  671          | 680     | LOHL671-680 (line)                  | 0.0     | 0.0     | 0.0     | +0.0    | -0.0     | 0.00      | no flow            
  671          | 692     | Switch (switch)                     | +229.7  | +71.5   | +178.8  | +1015.1 | +0.7     | 0.00      | 671 -> 692         
  684          | 652     | LC684-652A (line)                   | +63.0   | -       | -       | +123.9  | +82.9    | 0.72      | 684 -> 652         
  684          | 611     | LOHL684-611 (line)                  | -       | -       | +71.1   | +165.5  | -16.3    | 0.39      | 684 -> 611         
  692          | 675     | LC692-675 (line)                    | +205.9  | +71.5   | +124.5  | +847.4  | -148.3   | 4.38      | 692 -> 675         
  692          | DG      | 2-Winding Transformer (transformer) | 0.0     | 0.0     | 0.0     | +0.0    | +0.0     | 0.00      | no flow            

Total branch losses: 147.1 kW.  Branches where the active power flows towards the grid: none.

======================================================================================================================
LOAD FLOW, DG DISCONNECTED  -  BUSES  (voltage per phase; load, capacitor and generation at the bus)
======================================================================================================================
  Bus          | Un (kV) | Va (pu) | Va (kV) | ang a  | Vb (pu) | Vb (kV) | ang b   | Vc (pu) | Vc (kV) | ang c  | Load P (kW) | Load Q (kvar) | Cap Q supplied (kvar) | Source P (kW) | Source Q (kvar)
  -------------+---------+---------+---------+--------+---------+---------+---------+---------+---------+--------+-------------+---------------+-----------------------+---------------+----------------
  SubstationHV | 115.00  | 1.0000  | 66.3953 | 0.00   | 1.0000  | 66.3956 | -120.00 | 1.0000  | 66.3949 | 120.00 | -           | -             | -                     | 3618.2        | 2003.3         
  650          | 4.16    | 0.9981  | 2.3973  | -33.34 | 1.0170  | 2.4426  | -152.65 | 0.9979  | 2.3967  | 86.35  | -           | -             | -                     | -             | -              
  RG60         | 4.16    | 1.0605  | 2.5471  | -33.34 | 1.0679  | 2.5648  | -152.65 | 1.0665  | 2.5615  | 86.35  | -           | -             | -                     | -             | -              
  632          | 4.16    | 1.0187  | 2.4466  | -35.92 | 1.0616  | 2.5497  | -154.32 | 1.0142  | 2.4358  | 84.22  | -           | -             | -                     | -             | -              
  633          | 4.16    | 1.0158  | 2.4396  | -35.93 | 1.0588  | 2.5429  | -154.38 | 1.0124  | 2.4315  | 84.18  | -           | -             | -                     | -             | -              
  645          | 4.16    | -       | -       | -      | 1.0540  | 2.5314  | -154.44 | 1.0106  | 2.4273  | 84.30  | 170.0       | 125.0         | -                     | -             | -              
  nDL1         | 4.16    | 1.0133  | 2.4337  | -36.38 | 1.0632  | 2.5536  | -154.43 | 1.0073  | 2.4192  | 83.90  | 40.0        | 23.2          | -                     | -             | -              
  634          | 0.48    | 0.9918  | 0.2749  | -36.60 | 1.0406  | 0.2884  | -154.82 | 0.9936  | 0.2754  | 83.69  | 400.0       | 290.0         | -                     | -             | -              
  646          | 4.16    | -       | -       | -      | 1.0522  | 2.5272  | -154.52 | 1.0085  | 2.4223  | 84.34  | 247.0       | 141.8         | -                     | -             | -              
  nDL2         | 4.16    | 1.0080  | 2.4210  | -36.83 | 1.0649  | 2.5576  | -154.55 | 1.0005  | 2.4030  | 83.59  | 40.0        | 23.2          | -                     | -             | -              
  nDL          | 4.16    | 1.0028  | 2.4084  | -37.29 | 1.0666  | 2.5617  | -154.65 | 0.9939  | 2.3872  | 83.28  | -           | -             | -                     | -             | -              
  nDL4         | 4.16    | 0.9977  | 2.3961  | -37.76 | 1.0684  | 2.5661  | -154.76 | 0.9875  | 2.3718  | 82.98  | 40.0        | 23.2          | -                     | -             | -              
  DL           | 4.16    | 1.0028  | 2.4084  | -37.29 | 1.0666  | 2.5617  | -154.65 | 0.9939  | 2.3872  | 83.28  | 40.0        | 23.2          | -                     | -             | -              
  nDL5         | 4.16    | 0.9926  | 2.3841  | -38.23 | 1.0703  | 2.5706  | -154.86 | 0.9813  | 2.3569  | 82.68  | 40.0        | 23.2          | -                     | -             | -              
  671          | 4.16    | 0.9877  | 2.3722  | -38.70 | 1.0722  | 2.5752  | -154.95 | 0.9753  | 2.3423  | 82.38  | 1155.0      | 660.0         | -                     | -             | -              
  684          | 4.16    | 0.9859  | 2.3679  | -38.72 | -       | -       | -       | 0.9732  | 2.3373  | 82.27  | -           | -             | -                     | -             | -              
  680          | 4.16    | 0.9877  | 2.3722  | -38.70 | 1.0722  | 2.5752  | -154.95 | 0.9753  | 2.3423  | 82.38  | -           | -             | -                     | -             | -              
  692          | 4.16    | 0.9877  | 2.3722  | -38.70 | 1.0722  | 2.5752  | -154.95 | 0.9753  | 2.3423  | 82.38  | 167.8       | 149.0         | -                     | -             | -              
  652          | 4.16    | 0.9811  | 2.3564  | -38.64 | -       | -       | -       | -       | -       | -      | 123.2       | 82.8          | -                     | -             | -              
  611          | 4.16    | -       | -       | -      | -       | -       | -       | 0.9712  | 2.3327  | 82.13  | 165.1       | 77.7          | 94.3                  | -             | -              
  675          | 4.16    | 0.9809  | 2.3558  | -39.06 | 1.0767  | 2.5859  | -155.12 | 0.9729  | 2.3367  | 82.49  | 843.0       | 462.0         | 613.6                 | -             | -              
  DG           | 0.69    | 1.0103  | 0.4025  | 174.64 | 1.0376  | 0.4133  | 52.23   | 0.9868  | 0.3931  | -67.95 | -           | -             | -                     | -             | -              

Voltages are phase-to-neutral.  Lowest feeder voltage 0.9712 pu at 611 phase c, highest 1.0767 pu at 675 phase b.
Total load 3471.1 kW / 2104.2 kvar; total branch losses 147.1 kW.
Grid supplies P 3618.2 kW, Q 2003.3 kvar.
Power balance at every bus (branches + loads + capacitors - sources): largest mismatch 0.02 kW/kvar at 684.

======================================================================================================================
LOAD FLOW, DG CONNECTED (4.05 MVA at 692)  -  BRANCH FLOWS  (From node -> To node, away from the grid)
======================================================================================================================
Values at the From node.  + : power / current flows From -> To;  - : it flows To -> From.
  From node    | To node | Branch                              | I a (A) | I b (A) | I c (A) | P (kW)  | Q (kvar) | Loss (kW) | Active power flows 
  -------------+---------+-------------------------------------+---------+---------+---------+---------+----------+-----------+--------------------
  SubstationHV | 650     | TrSubstation (transformer)          | -9.9    | +8.2    | +11.2   | +310.3  | +1900.6  | 7.91      | SubstationHV -> 650
  650          | RG60    | Vreg A+B+C (regulator)              | +281.2  | -195.1  | +304.5  | +302.3  | +1837.3  | 0.00      | 650 -> RG60        
  RG60         | 632     | LOHL650-632 (line)                  | +264.6  | -185.8  | +284.9  | +302.3  | +1837.3  | 14.02     | RG60 -> 632        
  632          | 633     | LOHL632-633 (line)                  | +78.8   | +60.3   | +61.3   | +406.1  | +300.6   | 0.88      | 632 -> 633         
  632          | 645     | LOHL632-645 (line)                  | -       | +143.2  | +66.7   | +425.6  | +272.5   | 3.39      | 632 -> 645         
  632          | nDL1    | LOHL632-671start (line)             | +210.3  | -233.3  | -179.3  | -543.3  | +1220.6  | 2.02      | nDL1 -> 632        
  633          | 634     | XFM-1 (transformer)                 | +78.8   | +60.3   | +61.3   | +405.2  | +299.5   | 5.18      | 633 -> 634         
  645          | 646     | LOHL645-646 (line)                  | -       | +66.7   | +66.7   | +252.2  | +144.9   | 0.57      | 645 -> 646         
  nDL1         | nDL2    | s2LOHL632-671 (line)                | +209.5  | -236.9  | -174.2  | -585.3  | +1191.8  | 2.00      | nDL2 -> nDL1       
  nDL2         | nDL     | s3LOHL632-671 (line)                | +208.7  | -240.6  | -169.7  | -627.3  | +1163.0  | 1.98      | nDL -> nDL2        
  nDL          | nDL4    | s4LOHL632-671 (line)                | +207.9  | -244.4  | -165.9  | -669.3  | +1134.2  | 1.97      | nDL4 -> nDL        
  nDL          | DL      | LDL (line)                          | +1.6    | +5.9    | +11.0   | +40.0   | +23.2    | 0.00      | nDL -> DL          
  nDL4         | nDL5    | s5LOHL632-671 (line)                | -207.1  | -248.2  | -162.7  | -711.3  | +1105.4  | 1.98      | nDL5 -> nDL4       
  nDL5         | 671     | LOHL632-671end (line)               | -206.3  | -252.2  | -160.2  | -753.3  | +1076.7  | 1.98      | 671 -> nDL5        
  671          | 684     | LOHL671-684 (line)                  | +65.9   | -       | +71.3   | +307.6  | +71.0    | 0.60      | 671 -> 684         
  671          | 680     | LOHL671-680 (line)                  | 0.0     | 0.0     | 0.0     | +0.0    | -0.0     | 0.00      | no flow            
  671          | 692     | Switch (switch)                     | -230.5  | -392.8  | -287.5  | -2217.8 | +340.1   | 0.00      | 692 -> 671         
  684          | 652     | LC684-652A (line)                   | +65.9   | -       | -       | +135.7  | +90.8    | 0.79      | 684 -> 652         
  684          | 611     | LOHL684-611 (line)                  | -       | -       | +71.3   | +171.3  | -20.3    | 0.39      | 684 -> 611         
  692          | 675     | LC692-675 (line)                    | +196.8  | +71.6   | +119.9  | +847.0  | -181.4   | 3.96      | 692 -> 675         
  692          | DG      | 2-Winding Transformer (transformer) | -430.8  | -421.7  | -455.3  | -3240.0 | +365.8   | 0.00      | DG -> 692          

Total branch losses: 49.6 kW.  Branches where the active power flows towards the grid: 632 -> nDL1, nDL1 -> nDL2, nDL2 -> nDL, nDL -> nDL4, nDL4 -> nDL5, nDL5 -> 671, 671 -> 692, 692 -> DG.

======================================================================================================================
LOAD FLOW, DG CONNECTED (4.05 MVA at 692)  -  BUSES  (voltage per phase; load, capacitor and generation at the bus)
======================================================================================================================
  Bus          | Un (kV) | Va (pu) | Va (kV) | ang a   | Vb (pu) | Vb (kV) | ang b   | Vc (pu) | Vc (kV) | ang c  | Load P (kW) | Load Q (kvar) | Cap Q supplied (kvar) | Source P (kW) | Source Q (kvar)
  -------------+---------+---------+---------+---------+---------+---------+---------+---------+---------+--------+-------------+---------------+-----------------------+---------------+----------------
  SubstationHV | 115.00  | 1.0000  | 66.3953 | 0.00    | 1.0000  | 66.3955 | -120.00 | 1.0000  | 66.3951 | 120.00 | -           | -             | -                     | 310.3         | 1900.6         
  650          | 4.16    | 1.0084  | 2.4220  | -30.25  | 1.0200  | 2.4498  | -149.62 | 1.0057  | 2.4155  | 89.66  | -           | -             | -                     | -             | -              
  RG60         | 4.16    | 1.0715  | 2.5734  | -30.25  | 1.0710  | 2.5723  | -149.62 | 1.0748  | 2.5815  | 89.66  | -           | -             | -                     | -             | -              
  632          | 4.16    | 1.0482  | 2.5176  | -30.64  | 1.0640  | 2.5554  | -149.06 | 1.0361  | 2.4886  | 89.95  | -           | -             | -                     | -             | -              
  633          | 4.16    | 1.0454  | 2.5108  | -30.64  | 1.0611  | 2.5485  | -149.13 | 1.0344  | 2.4845  | 89.91  | -           | -             | -                     | -             | -              
  645          | 4.16    | -       | -       | -       | 1.0563  | 2.5371  | -149.19 | 1.0325  | 2.4799  | 90.03  | 170.0       | 125.0         | -                     | -             | -              
  nDL1         | 4.16    | 1.0457  | 2.5115  | -30.71  | 1.0654  | 2.5588  | -148.81 | 1.0313  | 2.4770  | 90.06  | 40.0        | 23.2          | -                     | -             | -              
  634          | 0.48    | 1.0221  | 0.2833  | -31.28  | 1.0430  | 0.2890  | -149.57 | 1.0161  | 0.2816  | 89.45  | 400.0       | 290.0         | -                     | -             | -              
  646          | 4.16    | -       | -       | -       | 1.0546  | 2.5328  | -149.27 | 1.0304  | 2.4749  | 90.07  | 251.6       | 144.4         | -                     | -             | -              
  nDL2         | 4.16    | 1.0432  | 2.5054  | -30.79  | 1.0669  | 2.5624  | -148.54 | 1.0266  | 2.4657  | 90.18  | 40.0        | 23.2          | -                     | -             | -              
  nDL          | 4.16    | 1.0407  | 2.4995  | -30.86  | 1.0685  | 2.5663  | -148.28 | 1.0221  | 2.4549  | 90.31  | -           | -             | -                     | -             | -              
  nDL4         | 4.16    | 1.0382  | 2.4936  | -30.93  | 1.0702  | 2.5703  | -148.01 | 1.0177  | 2.4444  | 90.45  | 40.0        | 23.2          | -                     | -             | -              
  DL           | 4.16    | 1.0407  | 2.4995  | -30.86  | 1.0685  | 2.5663  | -148.28 | 1.0221  | 2.4549  | 90.31  | 40.0        | 23.2          | -                     | -             | -              
  nDL5         | 4.16    | 1.0358  | 2.4878  | -31.00  | 1.0720  | 2.5746  | -147.74 | 1.0135  | 2.4342  | 90.59  | 40.0        | 23.2          | -                     | -             | -              
  671          | 4.16    | 1.0334  | 2.4820  | -31.07  | 1.0738  | 2.5791  | -147.47 | 1.0094  | 2.4244  | 90.75  | 1155.0      | 660.0         | -                     | -             | -              
  684          | 4.16    | 1.0315  | 2.4774  | -31.10  | -       | -       | -       | 1.0074  | 2.4195  | 90.64  | -           | -             | -                     | -             | -              
  680          | 4.16    | 1.0334  | 2.4820  | -31.07  | 1.0738  | 2.5791  | -147.47 | 1.0094  | 2.4244  | 90.75  | -           | -             | -                     | -             | -              
  692          | 4.16    | 1.0334  | 2.4820  | -31.07  | 1.0738  | 2.5791  | -147.47 | 1.0094  | 2.4244  | 90.75  | 175.2       | 155.6         | -                     | -             | -              
  652          | 4.16    | 1.0265  | 2.4654  | -31.01  | -       | -       | -       | -       | -       | -      | 134.9       | 90.6          | -                     | -             | -              
  611          | 4.16    | -       | -       | -       | -       | -       | -       | 1.0055  | 2.4150  | 90.50  | 170.9       | 80.4          | 101.1                 | -             | -              
  675          | 4.16    | 1.0271  | 2.4669  | -31.41  | 1.0781  | 2.5893  | -147.63 | 1.0072  | 2.4191  | 90.83  | 843.0       | 462.0         | 646.3                 | -             | -              
  DG           | 0.69    | 1.0302  | 0.4104  | -172.43 | 1.0390  | 0.4139  | 67.08   | 1.0269  | 0.4091  | -53.10 | -           | -             | -                     | 3240.0        | 0.0            

Voltages are phase-to-neutral.  Lowest feeder voltage 1.0055 pu at 611 phase c, highest 1.0781 pu at 675 phase b.
Total load 3500.6 kW / 2124.1 kvar; total branch losses 49.6 kW.
Grid supplies P 310.3 kW, Q 1900.6 kvar.
DG supplies P 3240.0 kW, Q 0.0 kvar.
Power balance at every bus (branches + loads + capacitors - sources): largest mismatch 0.03 kW/kvar at 684.

======================================================================================================================
EFFECT OF THE DG ON THE BRANCH FLOWS  (P at the From node, kW)
======================================================================================================================
  From node    | To node | P DG out (kW) | P DG in (kW) | Change (kW) | Note                 
  -------------+---------+---------------+--------------+-------------+----------------------
  SubstationHV | 650     | +3618.2       | +310.3       | -3307.9     |                      
  650          | RG60    | +3583.0       | +302.3       | -3280.7     |                      
  RG60         | 632     | +3583.0       | +302.3       | -3280.7     |                      
  632          | 633     | +406.3        | +406.1       | -0.3        |                      
  632          | 645     | +420.9        | +425.6       | +4.6        |                      
  632          | nDL1    | +2696.3       | -543.3       | -3239.6     | REVERSED by the DG   
  633          | 634     | +405.4        | +405.2       | -0.2        |                      
  645          | 646     | +247.6        | +252.2       | +4.6        |                      
  nDL1         | nDL2    | +2649.8       | -585.3       | -3235.1     | REVERSED by the DG   
  nDL2         | nDL     | +2603.5       | -627.3       | -3230.9     | REVERSED by the DG   
  nDL          | nDL4    | +2557.4       | -669.3       | -3226.7     | REVERSED by the DG   
  nDL          | DL      | +40.0         | +40.0        | -0.0        |                      
  nDL4         | nDL5    | +2511.5       | -711.3       | -3222.8     | REVERSED by the DG   
  nDL5         | 671     | +2465.7       | -753.3       | -3219.0     | REVERSED by the DG   
  671          | 684     | +290.0        | +307.6       | +17.6       |                      
  671          | 680     | +0.0          | +0.0         | +0.0        |                      
  671          | 692     | +1015.1       | -2217.8      | -3233.0     | REVERSED by the DG   
  684          | 652     | +123.9        | +135.7       | +11.7       |                      
  684          | 611     | +165.5        | +171.3       | +5.8        |                      
  692          | 675     | +847.4        | +847.0       | -0.4        |                      
  692          | DG      | +0.0          | -3240.0      | -3240.0     | carries the DG output

Saved: C:\Users\Rabin\Desktop\Digsilent_project - TWIST AND TURN\Replication\results\database  (7_/8_BranchFlow_*.csv, 9_/10_BusLoadFlow_*.csv, LoadFlow_AllBuses_Report.txt)

==========================================================================================
database_study.py
==========================================================================================

==============================================================================================================
0. MODEL, REFERENCE DIRECTIONS AND OPEN POINTS (before any calculation)
==============================================================================================================
Project: IEEE13 Yousaf2022 Replication   Study case: Study with Substation Transformer
Load flow: AC unbalanced, 3-phase (ABC).  Short circuit: complete method (pre-fault load flow), initial symmetrical current Ikss.

Reference direction of the reclosers (+ = forward = away from the grid):
  Device | Relay units in the model                         | Relay terminal | Measured element | Forward =   | Line distance from the grid        
  -------+--------------------------------------------------+----------------+------------------+-------------+------------------------------------
  R1     | R1 Fast, R1 Delayed                              | RG60           | LOHL650-632      | RG60 -> 632 | 0 (relay end) / 2000 (other end)   
  R2     | R2 Fast, R2 Delayed, R2 Rev Fast, R2 Rev Delayed | 671            | LOHL632-671end   | nDL5 -> 671 | 4000 (relay end) / 3667 (other end)
R2 sits at the 671 end of line 632-671. PowerFactory counts current positive from the terminal into the element, i.e. 671 -> 632 for R2, so R2's PowerFactory values are multiplied by -1 to get the forward reference 632 -> 671. R1's values are used as they are.

Data taken from the paper (Section IV-A, Table I) as found in the model:
  DG: synchronous, 4.05 MVA / 0.69 kV at node 692 through a 4.16/0.69 kV transformer, uk = 15 % (Dyn5)
  Table I: xd 1.400, xq 1.372, xd' 0.231, xq' 0.800, xd'' 0.118, xq'' 0.118, xl 0.050, rstr 0.0014 pu
Open points - values the paper does NOT give, with what the model uses (nothing was invented here):
  1. Source: the paper gives no source impedance. Model: External Grid 115 kV, Sk'' = 100000 MVA, behind the 5 MVA 115/4.16 kV substation transformer, uk = 8.06 % (IEEE 13-node benchmark data).
  2. DG operating point for the load flow: not in the paper. Model: P = 3.24 MW, voltage control (constv) at 1.00 pu; Q follows from the load flow.
  3. Relay / CT reference direction: not in the paper. Defined above from the paper's use of R2 (forward for faults at 671 and beyond).
  4. Short-circuit method (IEC 60909 or complete): not in the paper. Complete method used.
  5. 'Farthest node' of each protection section: not listed in the paper. Taken from the model's line lengths.
  6. Fault location in the upstream section 632-671: the distributed-load lateral 'DL' at the middle of the line.
  7. Regulator taps (fixed, from the model): VregA +10, VregB +8, VregC +11.

==============================================================================================================
1. LOAD FLOW WITHOUT DG  (CASE A - DG DISCONNECTED)
==============================================================================================================
  Device | Current (A) | Sign | Direction | P (kW) | Q (kvar) | I per phase A / B / C (A) | P per phase (kW)        | Voltage at the relay (pu)
  -------+-------------+------+-----------+--------+----------+---------------------------+-------------------------+--------------------------
  R1     | +587.7      | +    | forward   | 3583.0 | 1722.0   | +557.9 / +411.3 / +587.7  | 1247.1 / 985.9 / 1350.1 | 1.0605 / 1.0679 / 1.0665 
  R2     | +470.0      | +    | forward   | 2460.1 | 727.9    | +470.0 / +184.0 / +420.8  | 1036.8 / 467.7 / 955.6  | 0.9877 / 1.0722 / 0.9753 
Current = largest phase current; its sign and the direction follow the total active power in the forward reference. P and Q are positive in the forward direction.

==============================================================================================================
2. LOAD FLOW WITH DG  (CASE B - DG CONNECTED)
==============================================================================================================
  Device | Current (A) | Sign | Direction | P (kW) | Q (kvar) | I per phase A / B / C (A) | P per phase (kW)       | Voltage at the relay (pu)
  -------+-------------+------+-----------+--------+----------+---------------------------+------------------------+--------------------------
  R1     | +284.9      | +    | forward   | 302.3  | 1837.3   | +264.6 / -185.8 / +284.9  | 169.3 / -74.7 / 207.8  | 1.0715 / 1.0710 / 1.0748 
...